    3

 H   -2.4271258781    0.0000000000    0.0000000000
 H    0.0000000000    0.0000000000    0.0000000000
 H    0.8280833215    0.0000000000    0.0000000000
    3

 H   -1.8641344942    0.0000000000    0.0000000000
 H    0.0000000000    0.0000000000    0.0000000000
 H    0.8354166583    0.0000000000    0.0000000000
    3

 H   -1.4012524600    0.0000000000    0.0000000000
 H    0.0000000000    0.0000000000    0.0000000000
 H    0.8788474833    0.0000000000    0.0000000000
    3

 H   -1.0511870125    0.0000000000    0.0000000000
 H    0.0000000000    0.0000000000    0.0000000000
 H    1.0511608939    0.0000000000    0.0000000000
    3

 H   -0.8788665293    0.0000000000    0.0000000000
 H    0.0000000000    0.0000000000    0.0000000000
 H    1.4011887098    0.0000000000    0.0000000000
    3

 H   -0.8354278899    0.0000000000    0.0000000000
 H    0.0000000000    0.0000000000    0.0000000000
 H    1.8639629654    0.0000000000    0.0000000000
    3

 H   -0.8279182041    0.0000000000    0.0000000000
 H    0.0000000000    0.0000000000    0.0000000000
 H    2.4267290048    0.0000000000    0.0000000000
