    3

 H   -2.4165926535    0.0000000000    0.0000000000
 H    0.0000000000    0.0000000000    0.0000000000
 H    0.8243343408    0.0000000000    0.0000000000
    3

 H   -1.9555313095    0.0000000000    0.0000000000
 H    0.0000000000    0.0000000000    0.0000000000
 H    0.8317273161    0.0000000000    0.0000000000
    3

 H   -1.5474729388    0.0000000000    0.0000000000
 H    0.0000000000    0.0000000000    0.0000000000
 H    0.8570299467    0.0000000000    0.0000000000
    3

 H   -1.1997151956    0.0000000000    0.0000000000
 H    0.0000000000    0.0000000000    0.0000000000
 H    0.9536516486    0.0000000000    0.0000000000
    3

 H   -0.9536640913    0.0000000000    0.0000000000
 H    0.0000000000    0.0000000000    0.0000000000
 H    1.1997545292    0.0000000000    0.0000000000
    3

 H   -0.8570350201    0.0000000000    0.0000000000
 H    0.0000000000    0.0000000000    0.0000000000
 H    1.5474816862    0.0000000000    0.0000000000
    3

 H   -0.8317407309    0.0000000000    0.0000000000
 H    0.0000000000    0.0000000000    0.0000000000
 H    1.9555051285    0.0000000000    0.0000000000
    3

 H   -0.8243343408    0.0000000000    0.0000000000
 H    0.0000000000    0.0000000000    0.0000000000
 H    2.4165926535    0.0000000000    0.0000000000
