    3

 H   -2.4165926535    0.0000000000    0.0000000000
 H    0.0000000000    0.0000000000    0.0000000000
 H    0.8243343408    0.0000000000    0.0000000000
    3

 H   -1.9532245000    0.0000000000    0.0000000000
 H    0.0000000000    0.0000000000    0.0000000000
 H    0.8316037919    0.0000000000    0.0000000000
    3

 H   -1.5339123374    0.0000000000    0.0000000000
 H    0.0000000000    0.0000000000    0.0000000000
 H    0.8618012178    0.0000000000    0.0000000000
    3

 H   -1.2004044506    0.0000000000    0.0000000000
 H    0.0000000000    0.0000000000    0.0000000000
 H    0.9683865992    0.0000000000    0.0000000000
    3

 H   -0.9683865992    0.0000000000    0.0000000000
 H    0.0000000000    0.0000000000    0.0000000000
 H    1.2004044506    0.0000000000    0.0000000000
    3

 H   -0.8618012178    0.0000000000    0.0000000000
 H    0.0000000000    0.0000000000    0.0000000000
 H    1.5339123374    0.0000000000    0.0000000000
    3

 H   -0.8316037919    0.0000000000    0.0000000000
 H    0.0000000000    0.0000000000    0.0000000000
 H    1.9532245000    0.0000000000    0.0000000000
    3

 H   -0.8243343408    0.0000000000    0.0000000000
 H    0.0000000000    0.0000000000    0.0000000000
 H    2.4165926535    0.0000000000    0.0000000000
