    3

 H   -2.4165926535    0.0000000000    0.0000000000
 H    0.0000000000    0.0000000000    0.0000000000
 H    0.8243343408    0.0000000000    0.0000000000
    3

 H   -1.9466477197    0.0000000000    0.0000000000
 H    0.0000000000    0.0000000000    0.0000000000
 H    0.8313510709    0.0000000000    0.0000000000
    3

 H   -1.5246527089    0.0000000000    0.0000000000
 H    0.0000000000    0.0000000000    0.0000000000
 H    0.8621592219    0.0000000000    0.0000000000
    3

 H   -1.1901915608    0.0000000000    0.0000000000
 H    0.0000000000    0.0000000000    0.0000000000
 H    0.9599118019    0.0000000000    0.0000000000
    3

 H   -0.9599121052    0.0000000000    0.0000000000
 H    0.0000000000    0.0000000000    0.0000000000
 H    1.1901908018    0.0000000000    0.0000000000
    3

 H   -0.8621592668    0.0000000000    0.0000000000
 H    0.0000000000    0.0000000000    0.0000000000
 H    1.5246520330    0.0000000000    0.0000000000
    3

 H   -0.8313510252    0.0000000000    0.0000000000
 H    0.0000000000    0.0000000000    0.0000000000
 H    1.9466472916    0.0000000000    0.0000000000
    3

 H   -0.8243343408    0.0000000000    0.0000000000
 H    0.0000000000    0.0000000000    0.0000000000
 H    2.4165926535    0.0000000000    0.0000000000
