    3

 H   -2.4165926535    0.0000000000    0.0000000000
 H    0.0000000000    0.0000000000    0.0000000000
 H    0.8243343408    0.0000000000    0.0000000000
    3

 H   -1.9532248518    0.0000000000    0.0000000000
 H    0.0000000000    0.0000000000    0.0000000000
 H    0.8316037950    0.0000000000    0.0000000000
    3

 H   -1.5339132016    0.0000000000    0.0000000000
 H    0.0000000000    0.0000000000    0.0000000000
 H    0.8618010447    0.0000000000    0.0000000000
    3

 H   -1.2004049110    0.0000000000    0.0000000000
 H    0.0000000000    0.0000000000    0.0000000000
 H    0.9683867527    0.0000000000    0.0000000000
    3

 H   -0.9683872953    0.0000000000    0.0000000000
 H    0.0000000000    0.0000000000    0.0000000000
 H    1.2004037079    0.0000000000    0.0000000000
    3

 H   -0.8618011773    0.0000000000    0.0000000000
 H    0.0000000000    0.0000000000    0.0000000000
 H    1.5339119870    0.0000000000    0.0000000000
    3

 H   -0.8316038171    0.0000000000    0.0000000000
 H    0.0000000000    0.0000000000    0.0000000000
 H    1.9532240008    0.0000000000    0.0000000000
    3

 H   -0.8243343408    0.0000000000    0.0000000000
 H    0.0000000000    0.0000000000    0.0000000000
 H    2.4165926535    0.0000000000    0.0000000000
