    3

 H   -2.4165936162    0.0000000000    0.0000000000
 H    0.0000000000    0.0000000000    0.0000000000
 H    0.8243346691    0.0000000000    0.0000000000
    3

 H   -2.0130480895    0.0000000000    0.0000000000
 H    0.0000000000    0.0000000000    0.0000000000
 H    0.8297458573    0.0000000000    0.0000000000
    3

 H   -1.6371376111    0.0000000000    0.0000000000
 H    0.0000000000    0.0000000000    0.0000000000
 H    0.8472694578    0.0000000000    0.0000000000
    3

 H   -1.3237243387    0.0000000000    0.0000000000
 H    0.0000000000    0.0000000000    0.0000000000
 H    0.9001145648    0.0000000000    0.0000000000
    3

 H   -1.0747474601    0.0000000000    0.0000000000
 H    0.0000000000    0.0000000000    0.0000000000
 H    1.0306146733    0.0000000000    0.0000000000
    3

 H   -0.8858618690    0.0000000000    0.0000000000
 H    0.0000000000    0.0000000000    0.0000000000
 H    1.3786490672    0.0000000000    0.0000000000
    3

 H   -0.8347832245    0.0000000000    0.0000000000
 H    0.0000000000    0.0000000000    0.0000000000
 H    1.8503221304    0.0000000000    0.0000000000
    3

 H   -0.8243346691    0.0000000000    0.0000000000
 H    0.0000000000    0.0000000000    0.0000000000
 H    2.4165936162    0.0000000000    0.0000000000
