    3

 H   -2.4165936162    0.0000000000    0.0000000000
 H    0.0000000000    0.0000000000    0.0000000000
 H    0.8243346691    0.0000000000    0.0000000000
    3

 H   -2.0131419220    0.0000000000    0.0000000000
 H    0.0000000000    0.0000000000    0.0000000000
 H    0.8297336578    0.0000000000    0.0000000000
    3

 H   -1.6372908347    0.0000000000    0.0000000000
 H    0.0000000000    0.0000000000    0.0000000000
 H    0.8472604357    0.0000000000    0.0000000000
    3

 H   -1.3238978290    0.0000000000    0.0000000000
 H    0.0000000000    0.0000000000    0.0000000000
 H    0.9000904424    0.0000000000    0.0000000000
    3

 H   -1.0748934187    0.0000000000    0.0000000000
 H    0.0000000000    0.0000000000    0.0000000000
 H    1.0305003439    0.0000000000    0.0000000000
    3

 H   -0.8858899594    0.0000000000    0.0000000000
 H    0.0000000000    0.0000000000    0.0000000000
 H    1.3785091364    0.0000000000    0.0000000000
    3

 H   -0.8347868920    0.0000000000    0.0000000000
 H    0.0000000000    0.0000000000    0.0000000000
 H    1.8502270743    0.0000000000    0.0000000000
    3

 H   -0.8243346691    0.0000000000    0.0000000000
 H    0.0000000000    0.0000000000    0.0000000000
 H    2.4165936162    0.0000000000    0.0000000000
