    3

 H   -2.4165926535    0.0000000000    0.0000000000
 H    0.0000000000    0.0000000000    0.0000000000
 H    0.8243343408    0.0000000000    0.0000000000
    3

 H   -1.9827692728    0.0000000000    0.0000000000
 H    0.0000000000    0.0000000000    0.0000000000
 H    0.8303854178    0.0000000000    0.0000000000
    3

 H   -1.6044390778    0.0000000000    0.0000000000
 H    0.0000000000    0.0000000000    0.0000000000
 H    0.8497406692    0.0000000000    0.0000000000
    3

 H   -1.2918450755    0.0000000000    0.0000000000
 H    0.0000000000    0.0000000000    0.0000000000
 H    0.9092009560    0.0000000000    0.0000000000
    3

 H   -1.0222935799    0.0000000000    0.0000000000
 H    0.0000000000    0.0000000000    0.0000000000
 H    1.0825411646    0.0000000000    0.0000000000
    3

 H   -0.8705878521    0.0000000000    0.0000000000
 H    0.0000000000    0.0000000000    0.0000000000
 H    1.4595085782    0.0000000000    0.0000000000
    3

 H   -0.8333186223    0.0000000000    0.0000000000
 H    0.0000000000    0.0000000000    0.0000000000
 H    1.8909747751    0.0000000000    0.0000000000
    3

 H   -0.8243343408    0.0000000000    0.0000000000
 H    0.0000000000    0.0000000000    0.0000000000
 H    2.4165926535    0.0000000000    0.0000000000
