    3

 H   -2.4165926535    0.0000000000    0.0000000000
 H    0.0000000000    0.0000000000    0.0000000000
 H    0.8243343408    0.0000000000    0.0000000000
    3

 H   -1.9068115547    0.0000000000    0.0000000000
 H    0.0000000000    0.0000000000    0.0000000000
 H    0.8331942651    0.0000000000    0.0000000000
    3

 H   -1.4251930183    0.0000000000    0.0000000000
 H    0.0000000000    0.0000000000    0.0000000000
 H    0.8785526886    0.0000000000    0.0000000000
    3

 H   -1.0610602453    0.0000000000    0.0000000000
 H    0.0000000000    0.0000000000    0.0000000000
 H    1.0610601969    0.0000000000    0.0000000000
    3

 H   -0.8785526943    0.0000000000    0.0000000000
 H    0.0000000000    0.0000000000    0.0000000000
 H    1.4251929852    0.0000000000    0.0000000000
    3

 H   -0.8331942639    0.0000000000    0.0000000000
 H    0.0000000000    0.0000000000    0.0000000000
 H    1.9068116118    0.0000000000    0.0000000000
    3

 H   -0.8243343408    0.0000000000    0.0000000000
 H    0.0000000000    0.0000000000    0.0000000000
 H    2.4165926535    0.0000000000    0.0000000000
