    3

 H   -2.4165926535    0.0000000000    0.0000000000
 H    0.0000000000    0.0000000000    0.0000000000
 H    0.8243343408    0.0000000000    0.0000000000
    3

 H   -1.8607311268    0.0000000000    0.0000000000
 H    0.0000000000    0.0000000000    0.0000000000
 H    0.8332849091    0.0000000000    0.0000000000
    3

 H   -1.3982891419    0.0000000000    0.0000000000
 H    0.0000000000    0.0000000000    0.0000000000
 H    0.8847281510    0.0000000000    0.0000000000
    3

 H   -1.0537666648    0.0000000000    0.0000000000
 H    0.0000000000    0.0000000000    0.0000000000
 H    1.0537666702    0.0000000000    0.0000000000
    3

 H   -0.8847281506    0.0000000000    0.0000000000
 H    0.0000000000    0.0000000000    0.0000000000
 H    1.3982891488    0.0000000000    0.0000000000
    3

 H   -0.8332849236    0.0000000000    0.0000000000
 H    0.0000000000    0.0000000000    0.0000000000
 H    1.8607311356    0.0000000000    0.0000000000
    3

 H   -0.8243343408    0.0000000000    0.0000000000
 H    0.0000000000    0.0000000000    0.0000000000
 H    2.4165926535    0.0000000000    0.0000000000
