    3

 H   -2.4165926535    0.0000000000    0.0000000000
 H    0.0000000000    0.0000000000    0.0000000000
 H    0.8243343408    0.0000000000    0.0000000000
    3

 H   -1.8697869951    0.0000000000    0.0000000000
 H    0.0000000000    0.0000000000    0.0000000000
 H    0.8338362478    0.0000000000    0.0000000000
    3

 H   -1.4065713627    0.0000000000    0.0000000000
 H    0.0000000000    0.0000000000    0.0000000000
 H    0.8817330686    0.0000000000    0.0000000000
    3

 H   -1.0563312149    0.0000000000    0.0000000000
 H    0.0000000000    0.0000000000    0.0000000000
 H    1.0563312153    0.0000000000    0.0000000000
    3

 H   -0.8817330690    0.0000000000    0.0000000000
 H    0.0000000000    0.0000000000    0.0000000000
 H    1.4065713643    0.0000000000    0.0000000000
    3

 H   -0.8338362472    0.0000000000    0.0000000000
 H    0.0000000000    0.0000000000    0.0000000000
 H    1.8697869975    0.0000000000    0.0000000000
    3

 H   -0.8243343408    0.0000000000    0.0000000000
 H    0.0000000000    0.0000000000    0.0000000000
 H    2.4165926535    0.0000000000    0.0000000000
