    3

 H   -2.4165936162    0.0000000000    0.0000000000
 H    0.0000000000    0.0000000000    0.0000000000
 H    0.8243346691    0.0000000000    0.0000000000
    3

 H   -1.8714177912    0.0000000000    0.0000000000
 H    0.0000000000    0.0000000000    0.0000000000
 H    0.8349177858    0.0000000000    0.0000000000
    3

 H   -1.4065789227    0.0000000000    0.0000000000
 H    0.0000000000    0.0000000000    0.0000000000
 H    0.8818303034    0.0000000000    0.0000000000
    3

 H   -1.0524496480    0.0000000000    0.0000000000
 H    0.0000000000    0.0000000000    0.0000000000
 H    1.0524489959    0.0000000000    0.0000000000
    3

 H   -0.8818304487    0.0000000000    0.0000000000
 H    0.0000000000    0.0000000000    0.0000000000
 H    1.4065782712    0.0000000000    0.0000000000
    3

 H   -0.8349178015    0.0000000000    0.0000000000
 H    0.0000000000    0.0000000000    0.0000000000
 H    1.8714173707    0.0000000000    0.0000000000
    3

 H   -0.8243346691    0.0000000000    0.0000000000
 H    0.0000000000    0.0000000000    0.0000000000
 H    2.4165936162    0.0000000000    0.0000000000
