    3

 H   -2.4165936162    0.0000000000    0.0000000000
 H    0.0000000000    0.0000000000    0.0000000000
 H    0.8243346691    0.0000000000    0.0000000000
    3

 H   -1.9466099703    0.0000000000    0.0000000000
 H    0.0000000000    0.0000000000    0.0000000000
 H    0.8313655199    0.0000000000    0.0000000000
    3

 H   -1.5246335373    0.0000000000    0.0000000000
 H    0.0000000000    0.0000000000    0.0000000000
 H    0.8621580722    0.0000000000    0.0000000000
    3

 H   -1.1901299823    0.0000000000    0.0000000000
 H    0.0000000000    0.0000000000    0.0000000000
 H    0.9598539109    0.0000000000    0.0000000000
    3

 H   -0.9598539328    0.0000000000    0.0000000000
 H    0.0000000000    0.0000000000    0.0000000000
 H    1.1901299271    0.0000000000    0.0000000000
    3

 H   -0.8621580746    0.0000000000    0.0000000000
 H    0.0000000000    0.0000000000    0.0000000000
 H    1.5246334895    0.0000000000    0.0000000000
    3

 H   -0.8313655302    0.0000000000    0.0000000000
 H    0.0000000000    0.0000000000    0.0000000000
 H    1.9466099387    0.0000000000    0.0000000000
    3

 H   -0.8243346691    0.0000000000    0.0000000000
 H    0.0000000000    0.0000000000    0.0000000000
 H    2.4165936162    0.0000000000    0.0000000000
